powerflow/Codes/PF_Formulation/resultados_csv/19/9bus/barras.csv
caso,script,bus_id,vm_pu,va_rad,pd_pu,qd_pu,pg_pu,qg_pu,bus_type
9bus.pwf,19,1,1.0084479294815643,0.0,0.0,0.0,1.4291699797643576,0.22264820185252895,3
9bus.pwf,19,2,1.0048511864425487,-0.03688536928698236,0.0,0.0,0.9,0.03990867639865133,2
9bus.pwf,19,3,1.0069503275323046,-0.029539677931610463,0.0,0.0,0.85,-0.05243002006168645,2
9bus.pwf,19,4,0.9990712838246252,-0.08179764908268873,0.0,0.0,0.0,0.0,1
9bus.pwf,19,5,0.9725287450220123,-0.15478227162809718,1.25,0.5,0.0,0.0,1
9bus.pwf,19,6,0.9880262541933686,-0.13417886978975413,0.9,0.3,0.0,0.0,1
9bus.pwf,19,7,1.0039308090954786,-0.09267356241540996,0.0,0.0,0.0,0.0,1
9bus.pwf,19,8,0.9937784426842782,-0.12785831179514803,1.0,0.35,0.0,0.0,1
9bus.pwf,19,9,1.0112121313393736,-0.07847693035710931,0.0,0.0,0.0,0.0,1
